Sim File: /home/rodox/Desktop/test/output//curitiba_test1.err

Program Version,EnergyPlus, Version 9.0.1-bb7ca4f0da, YMD=2020.04.24 17:39,
   ************* Beginning Zone Sizing Calculations
   ** Warning ** GetSurfaceData: Construction INTERIOR CEILING of interzone surface SURFACE 35 does not have the same materials in the reverse order as the construction INTERIOR FLOOR of adjacent surface SURFACE 13
   **   ~~~   ** ...but Nominal U values are similar, diff=[0.0000] ... simulation proceeds.
   **   ~~~   ** ...if the two zones are expected to have significantly different temperatures, the proper "reverse" construction should be created.
   **   ~~~   ** ...this problem for this pair will not be reported again.
   ** Warning ** GetSimpleAirModelInputs: ZoneVentilation:DesignFlowRate="ATM_EQUIP", design_flow_rate_calculation_method specifies flow_rate_per_person, but Zone Total Occupants = 0.  0 Ventilation will result.
   ** Warning ** GetSimpleAirModelInputs: ZoneVentilation:DesignFlowRate="SERVIDOR", design_flow_rate_calculation_method specifies flow_rate_per_person, but Zone Total Occupants = 0.  0 Ventilation will result.
   ** Warning ** Calculated design heating load for zone=ZN05_PV02_CO_NO_SERVIDOR is zero.
   **   ~~~   ** Check Sizing:Zone and ZoneControl:Thermostat inputs.
   ************* Beginning System Sizing Calculations
   ** Warning ** Sizing: Coil:Cooling:DX:SingleSpeed "ZN05_PV02_CO_NO_SERVIDOR PTHP COOLING COIL": Rated air volume flow rate per watt of rated total cooling capacity is out of range.
   **   ~~~   ** Min Rated Vol Flow Per Watt=[4.027E-005], Rated Vol Flow Per Watt=[3.794E-005], Max Rated Vol Flow Per Watt=[6.041E-005]. See Input Output Reference Manual for valid range.
   ** Warning ** Sizing: Coil:Heating:DX:SingleSpeed ZN05_PV02_CO_NO_SERVIDOR PTHP HEATING COIL: Rated air volume flow rate per watt of rated total heating capacity is out of range.
   **   ~~~   ** Min Rated Vol Flow Per Watt=[4.027E-005], Rated Vol Flow Per Watt=[3.794E-005], Max Rated Vol Flow Per Watt=[6.041E-005]. See Input-Output Reference Manual for valid range.
   ************* Testing Individual Branch Integrity
   ************* All Branches passed integrity testing
   ************* Testing Individual Supply Air Path Integrity
   ************* All Supply Air Paths passed integrity testing
   ************* Testing Individual Return Air Path Integrity
   ************* All Return Air Paths passed integrity testing
   ************* No node connection errors were found.
   ************* Beginning Simulation
   ** Warning ** CalcDoe2DXCoil: Coil:Cooling:DX:SingleSpeed "ZN05_PV02_CO_NO_SERVIDOR PTHP COOLING COIL" - Full load outlet air dry-bulb temperature < 2C. This indicates the possibility of coil frost/freeze. Outlet temperature = 0.44 C.
   **   ~~~   **  ...Occurrence info = RUN PERIOD 1, 01/01 00:00 - 00:10
   **   ~~~   ** ... Possible reasons for low outlet air dry-bulb temperatures are: This DX coil
   **   ~~~   **    1) may have a low inlet air dry-bulb temperature. Inlet air temperature = 23.999 C.
   **   ~~~   **    2) may have a low air flow rate per watt of cooling capacity. Check inputs.
   **   ~~~   **    3) is used as part of a HX assisted cooling coil which uses a high sensible effectiveness. Check inputs.
   ************* Simulation Error Summary *************
   ************* There are 1 unused schedules in input.
   ************* Use Output:Diagnostics,DisplayUnusedSchedules; to see them.
   *************
   ************* ===== Recurring Error Summary =====
   ************* The following recurring error messages occurred.
   *************
   *************  ** Warning ** CalcDoe2DXCoil: Coil:Cooling:DX:SingleSpeed="ZN05_PV02_CO_NO_SERVIDOR PTHP COOLING COIL" - Full load outlet temperature indicates a possibility of frost/freeze error continues. Outlet air temperature statistics follow:
   *************  **   ~~~   **   This error occurred 57436 total times;
   *************  **   ~~~   **   during Warmup 0 times;
   *************  **   ~~~   **   during Sizing 0 times.
   *************  **   ~~~   **   Max=1.999948  Min=0.141433
   *************
   ************* EnergyPlus Warmup Error Summary. During Warmup: 0 Warning; 0 Severe Errors.
   ************* EnergyPlus Sizing Error Summary. During Sizing: 4 Warning; 0 Severe Errors.
   ************* EnergyPlus Completed Successfully-- 57442 Warning; 0 Severe Errors; Elapsed Time=00hr 01min 14.15sec


Sim File: /home/rodox/Desktop/test/output//curitiba_test2.err

Program Version,EnergyPlus, Version 9.0.1-bb7ca4f0da, YMD=2020.04.24 17:39,
   ************* Beginning Zone Sizing Calculations
   ** Warning ** GetSurfaceData: Construction INTERIOR CEILING of interzone surface SURFACE 35 does not have the same materials in the reverse order as the construction INTERIOR FLOOR of adjacent surface SURFACE 13
   **   ~~~   ** ...but Nominal U values are similar, diff=[0.0000] ... simulation proceeds.
   **   ~~~   ** ...if the two zones are expected to have significantly different temperatures, the proper "reverse" construction should be created.
   **   ~~~   ** ...this problem for this pair will not be reported again.
   ** Warning ** GetSimpleAirModelInputs: ZoneVentilation:DesignFlowRate="ATM_EQUIP", design_flow_rate_calculation_method specifies flow_rate_per_person, but Zone Total Occupants = 0.  0 Ventilation will result.
   ** Warning ** GetSimpleAirModelInputs: ZoneVentilation:DesignFlowRate="SERVIDOR", design_flow_rate_calculation_method specifies flow_rate_per_person, but Zone Total Occupants = 0.  0 Ventilation will result.
   ** Warning ** Calculated design heating load for zone=ZN05_PV02_CO_NO_SERVIDOR is zero.
   **   ~~~   ** Check Sizing:Zone and ZoneControl:Thermostat inputs.
   ************* Beginning System Sizing Calculations
   ** Warning ** Sizing: Coil:Cooling:DX:SingleSpeed "ZN05_PV02_CO_NO_SERVIDOR PTHP COOLING COIL": Rated air volume flow rate per watt of rated total cooling capacity is out of range.
   **   ~~~   ** Min Rated Vol Flow Per Watt=[4.027E-005], Rated Vol Flow Per Watt=[3.794E-005], Max Rated Vol Flow Per Watt=[6.041E-005]. See Input Output Reference Manual for valid range.
   ** Warning ** Sizing: Coil:Heating:DX:SingleSpeed ZN05_PV02_CO_NO_SERVIDOR PTHP HEATING COIL: Rated air volume flow rate per watt of rated total heating capacity is out of range.
   **   ~~~   ** Min Rated Vol Flow Per Watt=[4.027E-005], Rated Vol Flow Per Watt=[3.794E-005], Max Rated Vol Flow Per Watt=[6.041E-005]. See Input-Output Reference Manual for valid range.
   ************* Testing Individual Branch Integrity
   ************* All Branches passed integrity testing
   ************* Testing Individual Supply Air Path Integrity
   ************* All Supply Air Paths passed integrity testing
   ************* Testing Individual Return Air Path Integrity
   ************* All Return Air Paths passed integrity testing
   ************* No node connection errors were found.
   ************* Beginning Simulation
   ** Warning ** CalcDoe2DXCoil: Coil:Cooling:DX:SingleSpeed "ZN05_PV02_CO_NO_SERVIDOR PTHP COOLING COIL" - Full load outlet air dry-bulb temperature < 2C. This indicates the possibility of coil frost/freeze. Outlet temperature = 0.44 C.
   **   ~~~   **  ...Occurrence info = RUN PERIOD 1, 01/01 00:00 - 00:10
   **   ~~~   ** ... Possible reasons for low outlet air dry-bulb temperatures are: This DX coil
   **   ~~~   **    1) may have a low inlet air dry-bulb temperature. Inlet air temperature = 23.999 C.
   **   ~~~   **    2) may have a low air flow rate per watt of cooling capacity. Check inputs.
   **   ~~~   **    3) is used as part of a HX assisted cooling coil which uses a high sensible effectiveness. Check inputs.
   ************* Simulation Error Summary *************
   ************* There are 1 unused schedules in input.
   ************* Use Output:Diagnostics,DisplayUnusedSchedules; to see them.
   *************
   ************* ===== Recurring Error Summary =====
   ************* The following recurring error messages occurred.
   *************
   *************  ** Warning ** CalcDoe2DXCoil: Coil:Cooling:DX:SingleSpeed="ZN05_PV02_CO_NO_SERVIDOR PTHP COOLING COIL" - Full load outlet temperature indicates a possibility of frost/freeze error continues. Outlet air temperature statistics follow:
   *************  **   ~~~   **   This error occurred 59715 total times;
   *************  **   ~~~   **   during Warmup 0 times;
   *************  **   ~~~   **   during Sizing 0 times.
   *************  **   ~~~   **   Max=1.99957  Min=0.140968
   *************
   ************* EnergyPlus Warmup Error Summary. During Warmup: 0 Warning; 0 Severe Errors.
   ************* EnergyPlus Sizing Error Summary. During Sizing: 4 Warning; 0 Severe Errors.
   ************* EnergyPlus Completed Successfully-- 59721 Warning; 0 Severe Errors; Elapsed Time=00hr 01min 13.28sec


Sim File: /home/rodox/Desktop/test/output//curitiba_test3.err

Program Version,EnergyPlus, Version 9.0.1-bb7ca4f0da, YMD=2020.04.24 17:39,
   ************* Beginning Zone Sizing Calculations
   ** Warning ** GetSurfaceData: Construction INTERIOR CEILING of interzone surface SURFACE 35 does not have the same materials in the reverse order as the construction INTERIOR FLOOR of adjacent surface SURFACE 13
   **   ~~~   ** ...but Nominal U values are similar, diff=[0.0000] ... simulation proceeds.
   **   ~~~   ** ...if the two zones are expected to have significantly different temperatures, the proper "reverse" construction should be created.
   **   ~~~   ** ...this problem for this pair will not be reported again.
   ** Warning ** GetSimpleAirModelInputs: ZoneVentilation:DesignFlowRate="ATM_EQUIP", design_flow_rate_calculation_method specifies flow_rate_per_person, but Zone Total Occupants = 0.  0 Ventilation will result.
   ** Warning ** GetSimpleAirModelInputs: ZoneVentilation:DesignFlowRate="SERVIDOR", design_flow_rate_calculation_method specifies flow_rate_per_person, but Zone Total Occupants = 0.  0 Ventilation will result.
   ** Warning ** Calculated design heating load for zone=ZN05_PV02_CO_NO_SERVIDOR is zero.
   **   ~~~   ** Check Sizing:Zone and ZoneControl:Thermostat inputs.
   ** Warning ** GetVRFInput: AirConditioner:VariableRefrigerantFlow="INV_ATMEQUIP VRF HEAT PUMP" curve values
   **   ~~~   ** ... cooling_capacity_ratio_modifier_function_of_low_temperature_curve_name = INV_ATMEQUIP VRFCOOLCAPFT output is not equal to 1.0 (+ or - 10%) at rated conditions.
   **   ~~~   ** ... Curve output at rated conditions = 1.143
   ** Warning ** GetVRFInput: AirConditioner:VariableRefrigerantFlow="INV_AGBANC_SERV VRF HEAT PUMP" curve values
   **   ~~~   ** ... cooling_capacity_ratio_modifier_function_of_low_temperature_curve_name = INV_AGBANC_SERV VRFCOOLCAPFT output is not equal to 1.0 (+ or - 10%) at rated conditions.
   **   ~~~   ** ... Curve output at rated conditions = 1.143
   ** Warning ** GetVRFInput: AirConditioner:VariableRefrigerantFlow="VRF_AGBANC VRF HEAT PUMP" curve values
   **   ~~~   ** ... cooling_capacity_ratio_modifier_function_of_low_temperature_curve_name = VRF_AGBANC VRFCOOLCAPFT output is not equal to 1.0 (+ or - 10%) at rated conditions.
   **   ~~~   ** ... Curve output at rated conditions = 1.143
   ** Warning ** GetDXCoils: Coil:Heating:DX:VariableRefrigerantFlow="ZN01_PV01_CO_RE_ATM_CLIENTES VRF HEATING COIL" curve values
   **   ~~~   ** ... heating_capacity_ratio_modifier_function_of_temperature_curve_name = ZN01_PV01_CO_RE_ATM_CLIENTES VRF HEATING COIL CAP-FT output is not equal to 1.0 (+ or - 10%) at rated conditions.
   **   ~~~   ** ... Curve output at rated conditions = 1.224
   ** Warning ** GetDXCoils: Coil:Heating:DX:VariableRefrigerantFlow="ZN01_PV01_CO_RE_ATM_EQUIP VRF HEATING COIL" curve values
   **   ~~~   ** ... heating_capacity_ratio_modifier_function_of_temperature_curve_name = ZN01_PV01_CO_RE_ATM_EQUIP VRF HEATING COIL CAP-FT output is not equal to 1.0 (+ or - 10%) at rated conditions.
   **   ~~~   ** ... Curve output at rated conditions = 1.224
   ** Warning ** GetDXCoils: Coil:Heating:DX:VariableRefrigerantFlow="ZN02_PV01_CO_RE_CAIXAS1 VRF HEATING COIL" curve values
   **   ~~~   ** ... heating_capacity_ratio_modifier_function_of_temperature_curve_name = ZN02_PV01_CO_RE_CAIXAS1 VRF HEATING COIL CAP-FT output is not equal to 1.0 (+ or - 10%) at rated conditions.
   **   ~~~   ** ... Curve output at rated conditions = 1.224
   ** Warning ** GetDXCoils: Coil:Heating:DX:VariableRefrigerantFlow="ZN03_PV02_CO_RE_CAIXAS2 VRF HEATING COIL" curve values
   **   ~~~   ** ... heating_capacity_ratio_modifier_function_of_temperature_curve_name = ZN03_PV02_CO_RE_CAIXAS2 VRF HEATING COIL CAP-FT output is not equal to 1.0 (+ or - 10%) at rated conditions.
   **   ~~~   ** ... Curve output at rated conditions = 1.224
   ** Warning ** GetDXCoils: Coil:Heating:DX:VariableRefrigerantFlow="ZN04_PV02_CO_RE_ADMIN VRF HEATING COIL" curve values
   **   ~~~   ** ... heating_capacity_ratio_modifier_function_of_temperature_curve_name = ZN04_PV02_CO_RE_ADMIN VRF HEATING COIL CAP-FT output is not equal to 1.0 (+ or - 10%) at rated conditions.
   **   ~~~   ** ... Curve output at rated conditions = 1.224
   ** Warning ** GetDXCoils: Coil:Heating:DX:VariableRefrigerantFlow="ZN05_PV02_CO_NO_SERVIDOR VRF HEATING COIL" curve values
   **   ~~~   ** ... heating_capacity_ratio_modifier_function_of_temperature_curve_name = ZN05_PV02_CO_NO_SERVIDOR VRF HEATING COIL CAP-FT output is not equal to 1.0 (+ or - 10%) at rated conditions.
   **   ~~~   ** ... Curve output at rated conditions = 1.224
   ************* SizeDXCoil: Potential issue with equipment sizing for Coil:Cooling:DX:VariableRefrigerantFlow ZN01_PV01_CO_RE_ATM_CLIENTES VRF COOLING COIL
   **   ~~~   ** User-Specified gross_rated_total_cooling_capacity [W] = 16000.00000
   **   ~~~   ** differs from Design Size gross_rated_total_cooling_capacity [W] = 14021.15525
   **   ~~~   ** This may, or may not, indicate mismatched component sizes.
   **   ~~~   ** Verify that the value entered is intended and is consistent with other components.
   ************* SizeDXCoil: Potential issue with equipment sizing for Coil:Cooling:DX:VariableRefrigerantFlow ZN01_PV01_CO_RE_ATM_EQUIP VRF COOLING COIL
   **   ~~~   ** User-Specified gross_rated_total_cooling_capacity [W] = 3518.00000
   **   ~~~   ** differs from Design Size gross_rated_total_cooling_capacity [W] = 2330.15496
   **   ~~~   ** This may, or may not, indicate mismatched component sizes.
   **   ~~~   ** Verify that the value entered is intended and is consistent with other components.
   ************* SizeDXCoil: Potential issue with equipment sizing for Coil:Cooling:DX:VariableRefrigerantFlow ZN02_PV01_CO_RE_CAIXAS1 VRF COOLING COIL
   **   ~~~   ** User-Specified gross_rated_total_cooling_capacity [W] = 9000.00000
   **   ~~~   ** differs from Design Size gross_rated_total_cooling_capacity [W] = 7339.70112
   **   ~~~   ** This may, or may not, indicate mismatched component sizes.
   **   ~~~   ** Verify that the value entered is intended and is consistent with other components.
   ************* SizeDXCoil: Potential issue with equipment sizing for Coil:Cooling:DX:VariableRefrigerantFlow ZN03_PV02_CO_RE_CAIXAS2 VRF COOLING COIL
   **   ~~~   ** User-Specified gross_rated_total_cooling_capacity [W] = 28400.00000
   **   ~~~   ** differs from Design Size gross_rated_total_cooling_capacity [W] = 20349.39121
   **   ~~~   ** This may, or may not, indicate mismatched component sizes.
   **   ~~~   ** Verify that the value entered is intended and is consistent with other components.
   ************* SizeDXCoil: Potential issue with equipment sizing for Coil:Cooling:DX:VariableRefrigerantFlow ZN04_PV02_CO_RE_ADMIN VRF COOLING COIL
   **   ~~~   ** User-Specified gross_rated_total_cooling_capacity [W] = 16800.00000
   **   ~~~   ** differs from Design Size gross_rated_total_cooling_capacity [W] = 11488.37985
   **   ~~~   ** This may, or may not, indicate mismatched component sizes.
   **   ~~~   ** Verify that the value entered is intended and is consistent with other components.
   ************* SizeVRF: Potential issue with equipment sizing for AirConditioner:VariableRefrigerantFlow ZN02_PV01_CO_RE_CAIXAS1 VRF TERMINAL UNIT
   **   ~~~   ** User-Specified Rated Total Heating Capacity of 81500.00 [W]
   **   ~~~   ** differs from Design Size Rated Total Heating Capacity of 70200.00 [W]
   **   ~~~   ** This may, or may not, indicate mismatched component sizes.
   **   ~~~   ** Verify that the value entered is intended and is consistent with other components.
   ************* SizeDXCoil: Potential issue with equipment sizing for Coil:Cooling:DX:VariableRefrigerantFlow ZN05_PV02_CO_NO_SERVIDOR VRF COOLING COIL
   **   ~~~   ** User-Specified gross_rated_total_cooling_capacity [W] = 8790.00000
   **   ~~~   ** differs from Design Size gross_rated_total_cooling_capacity [W] = 4385.38131
   **   ~~~   ** This may, or may not, indicate mismatched component sizes.
   **   ~~~   ** Verify that the value entered is intended and is consistent with other components.
   ************* Testing Individual Branch Integrity
   ************* All Branches passed integrity testing
   ************* Testing Individual Supply Air Path Integrity
   ************* All Supply Air Paths passed integrity testing
   ************* Testing Individual Return Air Path Integrity
   ************* All Return Air Paths passed integrity testing
   ************* No node connection errors were found.
   ************* Beginning Simulation
   ** Warning ** AirConditioner:VariableRefrigerantFlow "VRF_AGBANC VRF HEAT PUMP".
   **   ~~~   ** ...InitVRF: VRF Heat Pump Min/Max Operating Temperature in Heating Mode Limits have been exceeded and VRF system is disabled.
   **   ~~~   ** ... Outdoor Unit Inlet Air Temperature             = 18.200
   **   ~~~   ** ... Heating Minimum Outdoor Unit Inlet Temperature = -20.000
   **   ~~~   ** ... Heating Maximum Outdoor Unit Inlet Temperature = 15.500
   **   ~~~   ** ... Check VRF Heat Pump Min/Max Outdoor Temperature in Heating Mode limits.
   **   ~~~   **  Environment=RUN PERIOD 1, at Simulation time=01/02 08:00 - 08:10
   ************* Simulation Error Summary *************
   *************
   ************* ===== Recurring Error Summary =====
   ************* The following recurring error messages occurred.
   *************
   *************  ** Warning ** AirConditioner:VariableRefrigerantFlow "VRF_AGBANC VRF HEAT PUMP" -- Exceeded VRF Heat Pump min/max heating temperature limit error continues...
   *************  **   ~~~   **   This error occurred 8251 total times;
   *************  **   ~~~   **   during Warmup 0 times;
   *************  **   ~~~   **   during Sizing 0 times.
   *************  **   ~~~   **   Max=23.066667  Min=15.516667
   *************
   ************* EnergyPlus Warmup Error Summary. During Warmup: 0 Warning; 0 Severe Errors.
   ************* EnergyPlus Sizing Error Summary. During Sizing: 13 Warning; 0 Severe Errors.
   ************* EnergyPlus Completed Successfully-- 8264 Warning; 0 Severe Errors; Elapsed Time=00hr 01min 16.99sec


Sim File: /home/rodox/Desktop/test/output//curitiba_test4.err

Program Version,EnergyPlus, Version 9.0.1-bb7ca4f0da, YMD=2020.04.24 17:39,
   ************* Beginning Zone Sizing Calculations
   ** Warning ** GetSurfaceData: Construction INTERIOR CEILING of interzone surface SURFACE 35 does not have the same materials in the reverse order as the construction INTERIOR FLOOR of adjacent surface SURFACE 13
   **   ~~~   ** ...but Nominal U values are similar, diff=[0.0000] ... simulation proceeds.
   **   ~~~   ** ...if the two zones are expected to have significantly different temperatures, the proper "reverse" construction should be created.
   **   ~~~   ** ...this problem for this pair will not be reported again.
   ** Warning ** GetSimpleAirModelInputs: ZoneVentilation:DesignFlowRate="ATM_EQUIP", design_flow_rate_calculation_method specifies flow_rate_per_person, but Zone Total Occupants = 0.  0 Ventilation will result.
   ** Warning ** GetSimpleAirModelInputs: ZoneVentilation:DesignFlowRate="SERVIDOR", design_flow_rate_calculation_method specifies flow_rate_per_person, but Zone Total Occupants = 0.  0 Ventilation will result.
   ** Warning ** Calculated design heating load for zone=ZN05_PV02_CO_NO_SERVIDOR is zero.
   **   ~~~   ** Check Sizing:Zone and ZoneControl:Thermostat inputs.
   ** Warning ** GetVRFInput: AirConditioner:VariableRefrigerantFlow="INV_ATMEQUIP VRF HEAT PUMP" curve values
   **   ~~~   ** ... cooling_capacity_ratio_modifier_function_of_low_temperature_curve_name = INV_ATMEQUIP VRFCOOLCAPFT output is not equal to 1.0 (+ or - 10%) at rated conditions.
   **   ~~~   ** ... Curve output at rated conditions = 1.143
   ** Warning ** GetVRFInput: AirConditioner:VariableRefrigerantFlow="INV_AGBANC_SERV VRF HEAT PUMP" curve values
   **   ~~~   ** ... cooling_capacity_ratio_modifier_function_of_low_temperature_curve_name = INV_AGBANC_SERV VRFCOOLCAPFT output is not equal to 1.0 (+ or - 10%) at rated conditions.
   **   ~~~   ** ... Curve output at rated conditions = 1.143
   ** Warning ** GetVRFInput: AirConditioner:VariableRefrigerantFlow="VRF_AGBANC VRF HEAT PUMP" curve values
   **   ~~~   ** ... cooling_capacity_ratio_modifier_function_of_low_temperature_curve_name = VRF_AGBANC VRFCOOLCAPFT output is not equal to 1.0 (+ or - 10%) at rated conditions.
   **   ~~~   ** ... Curve output at rated conditions = 1.143
   ** Warning ** GetDXCoils: Coil:Heating:DX:VariableRefrigerantFlow="ZN01_PV01_CO_RE_ATM_CLIENTES VRF HEATING COIL" curve values
   **   ~~~   ** ... heating_capacity_ratio_modifier_function_of_temperature_curve_name = ZN01_PV01_CO_RE_ATM_CLIENTES VRF HEATING COIL CAP-FT output is not equal to 1.0 (+ or - 10%) at rated conditions.
   **   ~~~   ** ... Curve output at rated conditions = 1.224
   ** Warning ** GetDXCoils: Coil:Heating:DX:VariableRefrigerantFlow="ZN01_PV01_CO_RE_ATM_EQUIP VRF HEATING COIL" curve values
   **   ~~~   ** ... heating_capacity_ratio_modifier_function_of_temperature_curve_name = ZN01_PV01_CO_RE_ATM_EQUIP VRF HEATING COIL CAP-FT output is not equal to 1.0 (+ or - 10%) at rated conditions.
   **   ~~~   ** ... Curve output at rated conditions = 1.224
   ** Warning ** GetDXCoils: Coil:Heating:DX:VariableRefrigerantFlow="ZN02_PV01_CO_RE_CAIXAS1 VRF HEATING COIL" curve values
   **   ~~~   ** ... heating_capacity_ratio_modifier_function_of_temperature_curve_name = ZN02_PV01_CO_RE_CAIXAS1 VRF HEATING COIL CAP-FT output is not equal to 1.0 (+ or - 10%) at rated conditions.
   **   ~~~   ** ... Curve output at rated conditions = 1.224
   ** Warning ** GetDXCoils: Coil:Heating:DX:VariableRefrigerantFlow="ZN03_PV02_CO_RE_CAIXAS2 VRF HEATING COIL" curve values
   **   ~~~   ** ... heating_capacity_ratio_modifier_function_of_temperature_curve_name = ZN03_PV02_CO_RE_CAIXAS2 VRF HEATING COIL CAP-FT output is not equal to 1.0 (+ or - 10%) at rated conditions.
   **   ~~~   ** ... Curve output at rated conditions = 1.224
   ** Warning ** GetDXCoils: Coil:Heating:DX:VariableRefrigerantFlow="ZN04_PV02_CO_RE_ADMIN VRF HEATING COIL" curve values
   **   ~~~   ** ... heating_capacity_ratio_modifier_function_of_temperature_curve_name = ZN04_PV02_CO_RE_ADMIN VRF HEATING COIL CAP-FT output is not equal to 1.0 (+ or - 10%) at rated conditions.
   **   ~~~   ** ... Curve output at rated conditions = 1.224
   ** Warning ** GetDXCoils: Coil:Heating:DX:VariableRefrigerantFlow="ZN05_PV02_CO_NO_SERVIDOR VRF HEATING COIL" curve values
   **   ~~~   ** ... heating_capacity_ratio_modifier_function_of_temperature_curve_name = ZN05_PV02_CO_NO_SERVIDOR VRF HEATING COIL CAP-FT output is not equal to 1.0 (+ or - 10%) at rated conditions.
   **   ~~~   ** ... Curve output at rated conditions = 1.224
   ************* SizeDXCoil: Potential issue with equipment sizing for Coil:Cooling:DX:VariableRefrigerantFlow ZN01_PV01_CO_RE_ATM_CLIENTES VRF COOLING COIL
   **   ~~~   ** User-Specified gross_rated_total_cooling_capacity [W] = 16000.00000
   **   ~~~   ** differs from Design Size gross_rated_total_cooling_capacity [W] = 13903.75840
   **   ~~~   ** This may, or may not, indicate mismatched component sizes.
   **   ~~~   ** Verify that the value entered is intended and is consistent with other components.
   ************* SizeDXCoil: Potential issue with equipment sizing for Coil:Cooling:DX:VariableRefrigerantFlow ZN01_PV01_CO_RE_ATM_EQUIP VRF COOLING COIL
   **   ~~~   ** User-Specified gross_rated_total_cooling_capacity [W] = 3518.00000
   **   ~~~   ** differs from Design Size gross_rated_total_cooling_capacity [W] = 2330.15496
   **   ~~~   ** This may, or may not, indicate mismatched component sizes.
   **   ~~~   ** Verify that the value entered is intended and is consistent with other components.
   ************* SizeDXCoil: Potential issue with equipment sizing for Coil:Cooling:DX:VariableRefrigerantFlow ZN02_PV01_CO_RE_CAIXAS1 VRF COOLING COIL
   **   ~~~   ** User-Specified gross_rated_total_cooling_capacity [W] = 9000.00000
   **   ~~~   ** differs from Design Size gross_rated_total_cooling_capacity [W] = 7116.91832
   **   ~~~   ** This may, or may not, indicate mismatched component sizes.
   **   ~~~   ** Verify that the value entered is intended and is consistent with other components.
   ************* SizeDXCoil: Potential issue with equipment sizing for Coil:Cooling:DX:VariableRefrigerantFlow ZN03_PV02_CO_RE_CAIXAS2 VRF COOLING COIL
   **   ~~~   ** User-Specified gross_rated_total_cooling_capacity [W] = 28400.00000
   **   ~~~   ** differs from Design Size gross_rated_total_cooling_capacity [W] = 20253.31315
   **   ~~~   ** This may, or may not, indicate mismatched component sizes.
   **   ~~~   ** Verify that the value entered is intended and is consistent with other components.
   ************* SizeDXCoil: Potential issue with equipment sizing for Coil:Cooling:DX:VariableRefrigerantFlow ZN04_PV02_CO_RE_ADMIN VRF COOLING COIL
   **   ~~~   ** User-Specified gross_rated_total_cooling_capacity [W] = 16800.00000
   **   ~~~   ** differs from Design Size gross_rated_total_cooling_capacity [W] = 11405.35183
   **   ~~~   ** This may, or may not, indicate mismatched component sizes.
   **   ~~~   ** Verify that the value entered is intended and is consistent with other components.
   ************* SizeVRF: Potential issue with equipment sizing for AirConditioner:VariableRefrigerantFlow ZN02_PV01_CO_RE_CAIXAS1 VRF TERMINAL UNIT
   **   ~~~   ** User-Specified Rated Total Heating Capacity of 81500.00 [W]
   **   ~~~   ** differs from Design Size Rated Total Heating Capacity of 70200.00 [W]
   **   ~~~   ** This may, or may not, indicate mismatched component sizes.
   **   ~~~   ** Verify that the value entered is intended and is consistent with other components.
   ************* SizeDXCoil: Potential issue with equipment sizing for Coil:Cooling:DX:VariableRefrigerantFlow ZN05_PV02_CO_NO_SERVIDOR VRF COOLING COIL
   **   ~~~   ** User-Specified gross_rated_total_cooling_capacity [W] = 8790.00000
   **   ~~~   ** differs from Design Size gross_rated_total_cooling_capacity [W] = 4385.38131
   **   ~~~   ** This may, or may not, indicate mismatched component sizes.
   **   ~~~   ** Verify that the value entered is intended and is consistent with other components.
   ************* Testing Individual Branch Integrity
   ************* All Branches passed integrity testing
   ************* Testing Individual Supply Air Path Integrity
   ************* All Supply Air Paths passed integrity testing
   ************* Testing Individual Return Air Path Integrity
   ************* All Return Air Paths passed integrity testing
   ************* No node connection errors were found.
   ************* Beginning Simulation
   ** Warning ** AirConditioner:VariableRefrigerantFlow "VRF_AGBANC VRF HEAT PUMP".
   **   ~~~   ** ...InitVRF: VRF Heat Pump Min/Max Operating Temperature in Heating Mode Limits have been exceeded and VRF system is disabled.
   **   ~~~   ** ... Outdoor Unit Inlet Air Temperature             = 18.600
   **   ~~~   ** ... Heating Minimum Outdoor Unit Inlet Temperature = -20.000
   **   ~~~   ** ... Heating Maximum Outdoor Unit Inlet Temperature = 15.500
   **   ~~~   ** ... Check VRF Heat Pump Min/Max Outdoor Temperature in Heating Mode limits.
   **   ~~~   **  Environment=RUN PERIOD 1, at Simulation time=01/02 08:20 - 08:30
   ************* Simulation Error Summary *************
   *************
   ************* ===== Recurring Error Summary =====
   ************* The following recurring error messages occurred.
   *************
   *************  ** Warning ** AirConditioner:VariableRefrigerantFlow "VRF_AGBANC VRF HEAT PUMP" -- Exceeded VRF Heat Pump min/max heating temperature limit error continues...
   *************  **   ~~~   **   This error occurred 5571 total times;
   *************  **   ~~~   **   during Warmup 0 times;
   *************  **   ~~~   **   during Sizing 0 times.
   *************  **   ~~~   **   Max=22.15  Min=15.516667
   *************
   ************* EnergyPlus Warmup Error Summary. During Warmup: 0 Warning; 0 Severe Errors.
   ************* EnergyPlus Sizing Error Summary. During Sizing: 13 Warning; 0 Severe Errors.
   ************* EnergyPlus Completed Successfully-- 5584 Warning; 0 Severe Errors; Elapsed Time=00hr 01min 17.56sec


Sim File: /home/rodox/Desktop/test/output//maceio_test1.err

Program Version,EnergyPlus, Version 9.0.1-bb7ca4f0da, YMD=2020.04.24 17:38,
   ************* Beginning Zone Sizing Calculations
   ** Warning ** GetSurfaceData: Construction INTERIOR CEILING of interzone surface SURFACE 35 does not have the same materials in the reverse order as the construction INTERIOR FLOOR of adjacent surface SURFACE 13
   **   ~~~   ** ...but Nominal U values are similar, diff=[0.0000] ... simulation proceeds.
   **   ~~~   ** ...if the two zones are expected to have significantly different temperatures, the proper "reverse" construction should be created.
   **   ~~~   ** ...this problem for this pair will not be reported again.
   ** Warning ** GetSimpleAirModelInputs: ZoneVentilation:DesignFlowRate="ATM_EQUIP", design_flow_rate_calculation_method specifies flow_rate_per_person, but Zone Total Occupants = 0.  0 Ventilation will result.
   ** Warning ** GetSimpleAirModelInputs: ZoneVentilation:DesignFlowRate="SERVIDOR", design_flow_rate_calculation_method specifies flow_rate_per_person, but Zone Total Occupants = 0.  0 Ventilation will result.
   ** Warning ** Calculated design heating load for zone=ZN05_PV02_CO_NO_SERVIDOR is zero.
   **   ~~~   ** Check Sizing:Zone and ZoneControl:Thermostat inputs.
   ************* Beginning System Sizing Calculations
   ** Warning ** Sizing: Coil:Cooling:DX:SingleSpeed "ZN05_PV02_CO_NO_SERVIDOR PTHP COOLING COIL": Rated air volume flow rate per watt of rated total cooling capacity is out of range.
   **   ~~~   ** Min Rated Vol Flow Per Watt=[4.027E-005], Rated Vol Flow Per Watt=[3.794E-005], Max Rated Vol Flow Per Watt=[6.041E-005]. See Input Output Reference Manual for valid range.
   ** Warning ** Sizing: Coil:Heating:DX:SingleSpeed ZN05_PV02_CO_NO_SERVIDOR PTHP HEATING COIL: Rated air volume flow rate per watt of rated total heating capacity is out of range.
   **   ~~~   ** Min Rated Vol Flow Per Watt=[4.027E-005], Rated Vol Flow Per Watt=[3.794E-005], Max Rated Vol Flow Per Watt=[6.041E-005]. See Input-Output Reference Manual for valid range.
   ************* Testing Individual Branch Integrity
   ************* All Branches passed integrity testing
   ************* Testing Individual Supply Air Path Integrity
   ************* All Supply Air Paths passed integrity testing
   ************* Testing Individual Return Air Path Integrity
   ************* All Return Air Paths passed integrity testing
   ************* No node connection errors were found.
   ************* Beginning Simulation
   ************* Simulation Error Summary *************
   ************* There are 1 unused schedules in input.
   ************* Use Output:Diagnostics,DisplayUnusedSchedules; to see them.
   ************* EnergyPlus Warmup Error Summary. During Warmup: 0 Warning; 0 Severe Errors.
   ************* EnergyPlus Sizing Error Summary. During Sizing: 4 Warning; 0 Severe Errors.
   ************* EnergyPlus Completed Successfully-- 6 Warning; 0 Severe Errors; Elapsed Time=00hr 01min 12.11sec


Sim File: /home/rodox/Desktop/test/output//maceio_test2.err

Program Version,EnergyPlus, Version 9.0.1-bb7ca4f0da, YMD=2020.04.24 17:38,
   ************* Beginning Zone Sizing Calculations
   ** Warning ** GetSurfaceData: Construction INTERIOR CEILING of interzone surface SURFACE 35 does not have the same materials in the reverse order as the construction INTERIOR FLOOR of adjacent surface SURFACE 13
   **   ~~~   ** ...but Nominal U values are similar, diff=[0.0000] ... simulation proceeds.
   **   ~~~   ** ...if the two zones are expected to have significantly different temperatures, the proper "reverse" construction should be created.
   **   ~~~   ** ...this problem for this pair will not be reported again.
   ** Warning ** GetSimpleAirModelInputs: ZoneVentilation:DesignFlowRate="ATM_EQUIP", design_flow_rate_calculation_method specifies flow_rate_per_person, but Zone Total Occupants = 0.  0 Ventilation will result.
   ** Warning ** GetSimpleAirModelInputs: ZoneVentilation:DesignFlowRate="SERVIDOR", design_flow_rate_calculation_method specifies flow_rate_per_person, but Zone Total Occupants = 0.  0 Ventilation will result.
   ** Warning ** Calculated design heating load for zone=ZN05_PV02_CO_NO_SERVIDOR is zero.
   **   ~~~   ** Check Sizing:Zone and ZoneControl:Thermostat inputs.
   ************* Beginning System Sizing Calculations
   ** Warning ** Sizing: Coil:Cooling:DX:SingleSpeed "ZN05_PV02_CO_NO_SERVIDOR PTHP COOLING COIL": Rated air volume flow rate per watt of rated total cooling capacity is out of range.
   **   ~~~   ** Min Rated Vol Flow Per Watt=[4.027E-005], Rated Vol Flow Per Watt=[3.794E-005], Max Rated Vol Flow Per Watt=[6.041E-005]. See Input Output Reference Manual for valid range.
   ** Warning ** Sizing: Coil:Heating:DX:SingleSpeed ZN05_PV02_CO_NO_SERVIDOR PTHP HEATING COIL: Rated air volume flow rate per watt of rated total heating capacity is out of range.
   **   ~~~   ** Min Rated Vol Flow Per Watt=[4.027E-005], Rated Vol Flow Per Watt=[3.794E-005], Max Rated Vol Flow Per Watt=[6.041E-005]. See Input-Output Reference Manual for valid range.
   ************* Testing Individual Branch Integrity
   ************* All Branches passed integrity testing
   ************* Testing Individual Supply Air Path Integrity
   ************* All Supply Air Paths passed integrity testing
   ************* Testing Individual Return Air Path Integrity
   ************* All Return Air Paths passed integrity testing
   ************* No node connection errors were found.
   ************* Beginning Simulation
   ************* Simulation Error Summary *************
   ************* There are 1 unused schedules in input.
   ************* Use Output:Diagnostics,DisplayUnusedSchedules; to see them.
   ************* EnergyPlus Warmup Error Summary. During Warmup: 0 Warning; 0 Severe Errors.
   ************* EnergyPlus Sizing Error Summary. During Sizing: 4 Warning; 0 Severe Errors.
   ************* EnergyPlus Completed Successfully-- 6 Warning; 0 Severe Errors; Elapsed Time=00hr 01min 13.20sec


Sim File: /home/rodox/Desktop/test/output//maceio_test3.err

Program Version,EnergyPlus, Version 9.0.1-bb7ca4f0da, YMD=2020.04.24 17:38,
   ************* Beginning Zone Sizing Calculations
   ** Warning ** GetSurfaceData: Construction INTERIOR CEILING of interzone surface SURFACE 35 does not have the same materials in the reverse order as the construction INTERIOR FLOOR of adjacent surface SURFACE 13
   **   ~~~   ** ...but Nominal U values are similar, diff=[0.0000] ... simulation proceeds.
   **   ~~~   ** ...if the two zones are expected to have significantly different temperatures, the proper "reverse" construction should be created.
   **   ~~~   ** ...this problem for this pair will not be reported again.
   ** Warning ** GetSimpleAirModelInputs: ZoneVentilation:DesignFlowRate="ATM_EQUIP", design_flow_rate_calculation_method specifies flow_rate_per_person, but Zone Total Occupants = 0.  0 Ventilation will result.
   ** Warning ** GetSimpleAirModelInputs: ZoneVentilation:DesignFlowRate="SERVIDOR", design_flow_rate_calculation_method specifies flow_rate_per_person, but Zone Total Occupants = 0.  0 Ventilation will result.
   ** Warning ** Calculated design heating load for zone=ZN05_PV02_CO_NO_SERVIDOR is zero.
   **   ~~~   ** Check Sizing:Zone and ZoneControl:Thermostat inputs.
   ** Warning ** GetVRFInput: AirConditioner:VariableRefrigerantFlow="INV_ATMEQUIP VRF HEAT PUMP" curve values
   **   ~~~   ** ... cooling_capacity_ratio_modifier_function_of_low_temperature_curve_name = INV_ATMEQUIP VRFCOOLCAPFT output is not equal to 1.0 (+ or - 10%) at rated conditions.
   **   ~~~   ** ... Curve output at rated conditions = 1.143
   ** Warning ** GetVRFInput: AirConditioner:VariableRefrigerantFlow="INV_AGBANC_SERV VRF HEAT PUMP" curve values
   **   ~~~   ** ... cooling_capacity_ratio_modifier_function_of_low_temperature_curve_name = INV_AGBANC_SERV VRFCOOLCAPFT output is not equal to 1.0 (+ or - 10%) at rated conditions.
   **   ~~~   ** ... Curve output at rated conditions = 1.143
   ** Warning ** GetVRFInput: AirConditioner:VariableRefrigerantFlow="VRF_AGBANC VRF HEAT PUMP" curve values
   **   ~~~   ** ... cooling_capacity_ratio_modifier_function_of_low_temperature_curve_name = VRF_AGBANC VRFCOOLCAPFT output is not equal to 1.0 (+ or - 10%) at rated conditions.
   **   ~~~   ** ... Curve output at rated conditions = 1.143
   ** Warning ** GetDXCoils: Coil:Heating:DX:VariableRefrigerantFlow="ZN01_PV01_CO_RE_ATM_CLIENTES VRF HEATING COIL" curve values
   **   ~~~   ** ... heating_capacity_ratio_modifier_function_of_temperature_curve_name = ZN01_PV01_CO_RE_ATM_CLIENTES VRF HEATING COIL CAP-FT output is not equal to 1.0 (+ or - 10%) at rated conditions.
   **   ~~~   ** ... Curve output at rated conditions = 1.224
   ** Warning ** GetDXCoils: Coil:Heating:DX:VariableRefrigerantFlow="ZN01_PV01_CO_RE_ATM_EQUIP VRF HEATING COIL" curve values
   **   ~~~   ** ... heating_capacity_ratio_modifier_function_of_temperature_curve_name = ZN01_PV01_CO_RE_ATM_EQUIP VRF HEATING COIL CAP-FT output is not equal to 1.0 (+ or - 10%) at rated conditions.
   **   ~~~   ** ... Curve output at rated conditions = 1.224
   ** Warning ** GetDXCoils: Coil:Heating:DX:VariableRefrigerantFlow="ZN02_PV01_CO_RE_CAIXAS1 VRF HEATING COIL" curve values
   **   ~~~   ** ... heating_capacity_ratio_modifier_function_of_temperature_curve_name = ZN02_PV01_CO_RE_CAIXAS1 VRF HEATING COIL CAP-FT output is not equal to 1.0 (+ or - 10%) at rated conditions.
   **   ~~~   ** ... Curve output at rated conditions = 1.224
   ** Warning ** GetDXCoils: Coil:Heating:DX:VariableRefrigerantFlow="ZN03_PV02_CO_RE_CAIXAS2 VRF HEATING COIL" curve values
   **   ~~~   ** ... heating_capacity_ratio_modifier_function_of_temperature_curve_name = ZN03_PV02_CO_RE_CAIXAS2 VRF HEATING COIL CAP-FT output is not equal to 1.0 (+ or - 10%) at rated conditions.
   **   ~~~   ** ... Curve output at rated conditions = 1.224
   ** Warning ** GetDXCoils: Coil:Heating:DX:VariableRefrigerantFlow="ZN04_PV02_CO_RE_ADMIN VRF HEATING COIL" curve values
   **   ~~~   ** ... heating_capacity_ratio_modifier_function_of_temperature_curve_name = ZN04_PV02_CO_RE_ADMIN VRF HEATING COIL CAP-FT output is not equal to 1.0 (+ or - 10%) at rated conditions.
   **   ~~~   ** ... Curve output at rated conditions = 1.224
   ** Warning ** GetDXCoils: Coil:Heating:DX:VariableRefrigerantFlow="ZN05_PV02_CO_NO_SERVIDOR VRF HEATING COIL" curve values
   **   ~~~   ** ... heating_capacity_ratio_modifier_function_of_temperature_curve_name = ZN05_PV02_CO_NO_SERVIDOR VRF HEATING COIL CAP-FT output is not equal to 1.0 (+ or - 10%) at rated conditions.
   **   ~~~   ** ... Curve output at rated conditions = 1.224
   ************* SizeDXCoil: Potential issue with equipment sizing for Coil:Cooling:DX:VariableRefrigerantFlow ZN01_PV01_CO_RE_ATM_EQUIP VRF COOLING COIL
   **   ~~~   ** User-Specified gross_rated_total_cooling_capacity [W] = 3518.00000
   **   ~~~   ** differs from Design Size gross_rated_total_cooling_capacity [W] = 2496.27038
   **   ~~~   ** This may, or may not, indicate mismatched component sizes.
   **   ~~~   ** Verify that the value entered is intended and is consistent with other components.
   ************* SizeDXCoil: Potential issue with equipment sizing for Coil:Cooling:DX:VariableRefrigerantFlow ZN02_PV01_CO_RE_CAIXAS1 VRF COOLING COIL
   **   ~~~   ** User-Specified gross_rated_total_cooling_capacity [W] = 9000.00000
   **   ~~~   ** differs from Design Size gross_rated_total_cooling_capacity [W] = 7798.28080
   **   ~~~   ** This may, or may not, indicate mismatched component sizes.
   **   ~~~   ** Verify that the value entered is intended and is consistent with other components.
   ************* SizeDXCoil: Potential issue with equipment sizing for Coil:Cooling:DX:VariableRefrigerantFlow ZN03_PV02_CO_RE_CAIXAS2 VRF COOLING COIL
   **   ~~~   ** User-Specified gross_rated_total_cooling_capacity [W] = 28400.00000
   **   ~~~   ** differs from Design Size gross_rated_total_cooling_capacity [W] = 22534.73462
   **   ~~~   ** This may, or may not, indicate mismatched component sizes.
   **   ~~~   ** Verify that the value entered is intended and is consistent with other components.
   ************* SizeDXCoil: Potential issue with equipment sizing for Coil:Cooling:DX:VariableRefrigerantFlow ZN04_PV02_CO_RE_ADMIN VRF COOLING COIL
   **   ~~~   ** User-Specified gross_rated_total_cooling_capacity [W] = 16800.00000
   **   ~~~   ** differs from Design Size gross_rated_total_cooling_capacity [W] = 12304.87178
   **   ~~~   ** This may, or may not, indicate mismatched component sizes.
   **   ~~~   ** Verify that the value entered is intended and is consistent with other components.
   ************* SizeVRF: Potential issue with equipment sizing for AirConditioner:VariableRefrigerantFlow ZN02_PV01_CO_RE_CAIXAS1 VRF TERMINAL UNIT
   **   ~~~   ** User-Specified Rated Total Heating Capacity of 81500.00 [W]
   **   ~~~   ** differs from Design Size Rated Total Heating Capacity of 70200.00 [W]
   **   ~~~   ** This may, or may not, indicate mismatched component sizes.
   **   ~~~   ** Verify that the value entered is intended and is consistent with other components.
   ************* SizeDXCoil: Potential issue with equipment sizing for Coil:Cooling:DX:VariableRefrigerantFlow ZN05_PV02_CO_NO_SERVIDOR VRF COOLING COIL
   **   ~~~   ** User-Specified gross_rated_total_cooling_capacity [W] = 8790.00000
   **   ~~~   ** differs from Design Size gross_rated_total_cooling_capacity [W] = 4692.32662
   **   ~~~   ** This may, or may not, indicate mismatched component sizes.
   **   ~~~   ** Verify that the value entered is intended and is consistent with other components.
   ************* Testing Individual Branch Integrity
   ************* All Branches passed integrity testing
   ************* Testing Individual Supply Air Path Integrity
   ************* All Supply Air Paths passed integrity testing
   ************* Testing Individual Return Air Path Integrity
   ************* All Return Air Paths passed integrity testing
   ************* No node connection errors were found.
   ************* Beginning Simulation
   ************* Simulation Error Summary *************
   ************* EnergyPlus Warmup Error Summary. During Warmup: 0 Warning; 0 Severe Errors.
   ************* EnergyPlus Sizing Error Summary. During Sizing: 13 Warning; 0 Severe Errors.
   ************* EnergyPlus Completed Successfully-- 13 Warning; 0 Severe Errors; Elapsed Time=00hr 01min 15.58sec


Sim File: /home/rodox/Desktop/test/output//maceio_test4.err

Program Version,EnergyPlus, Version 9.0.1-bb7ca4f0da, YMD=2020.04.24 17:38,
   ************* Beginning Zone Sizing Calculations
   ** Warning ** GetSurfaceData: Construction INTERIOR CEILING of interzone surface SURFACE 35 does not have the same materials in the reverse order as the construction INTERIOR FLOOR of adjacent surface SURFACE 13
   **   ~~~   ** ...but Nominal U values are similar, diff=[0.0000] ... simulation proceeds.
   **   ~~~   ** ...if the two zones are expected to have significantly different temperatures, the proper "reverse" construction should be created.
   **   ~~~   ** ...this problem for this pair will not be reported again.
   ** Warning ** GetSimpleAirModelInputs: ZoneVentilation:DesignFlowRate="ATM_EQUIP", design_flow_rate_calculation_method specifies flow_rate_per_person, but Zone Total Occupants = 0.  0 Ventilation will result.
   ** Warning ** GetSimpleAirModelInputs: ZoneVentilation:DesignFlowRate="SERVIDOR", design_flow_rate_calculation_method specifies flow_rate_per_person, but Zone Total Occupants = 0.  0 Ventilation will result.
   ** Warning ** Calculated design heating load for zone=ZN05_PV02_CO_NO_SERVIDOR is zero.
   **   ~~~   ** Check Sizing:Zone and ZoneControl:Thermostat inputs.
   ** Warning ** GetVRFInput: AirConditioner:VariableRefrigerantFlow="INV_ATMEQUIP VRF HEAT PUMP" curve values
   **   ~~~   ** ... cooling_capacity_ratio_modifier_function_of_low_temperature_curve_name = INV_ATMEQUIP VRFCOOLCAPFT output is not equal to 1.0 (+ or - 10%) at rated conditions.
   **   ~~~   ** ... Curve output at rated conditions = 1.143
   ** Warning ** GetVRFInput: AirConditioner:VariableRefrigerantFlow="INV_AGBANC_SERV VRF HEAT PUMP" curve values
   **   ~~~   ** ... cooling_capacity_ratio_modifier_function_of_low_temperature_curve_name = INV_AGBANC_SERV VRFCOOLCAPFT output is not equal to 1.0 (+ or - 10%) at rated conditions.
   **   ~~~   ** ... Curve output at rated conditions = 1.143
   ** Warning ** GetVRFInput: AirConditioner:VariableRefrigerantFlow="VRF_AGBANC VRF HEAT PUMP" curve values
   **   ~~~   ** ... cooling_capacity_ratio_modifier_function_of_low_temperature_curve_name = VRF_AGBANC VRFCOOLCAPFT output is not equal to 1.0 (+ or - 10%) at rated conditions.
   **   ~~~   ** ... Curve output at rated conditions = 1.143
   ** Warning ** GetDXCoils: Coil:Heating:DX:VariableRefrigerantFlow="ZN01_PV01_CO_RE_ATM_CLIENTES VRF HEATING COIL" curve values
   **   ~~~   ** ... heating_capacity_ratio_modifier_function_of_temperature_curve_name = ZN01_PV01_CO_RE_ATM_CLIENTES VRF HEATING COIL CAP-FT output is not equal to 1.0 (+ or - 10%) at rated conditions.
   **   ~~~   ** ... Curve output at rated conditions = 1.224
   ** Warning ** GetDXCoils: Coil:Heating:DX:VariableRefrigerantFlow="ZN01_PV01_CO_RE_ATM_EQUIP VRF HEATING COIL" curve values
   **   ~~~   ** ... heating_capacity_ratio_modifier_function_of_temperature_curve_name = ZN01_PV01_CO_RE_ATM_EQUIP VRF HEATING COIL CAP-FT output is not equal to 1.0 (+ or - 10%) at rated conditions.
   **   ~~~   ** ... Curve output at rated conditions = 1.224
   ** Warning ** GetDXCoils: Coil:Heating:DX:VariableRefrigerantFlow="ZN02_PV01_CO_RE_CAIXAS1 VRF HEATING COIL" curve values
   **   ~~~   ** ... heating_capacity_ratio_modifier_function_of_temperature_curve_name = ZN02_PV01_CO_RE_CAIXAS1 VRF HEATING COIL CAP-FT output is not equal to 1.0 (+ or - 10%) at rated conditions.
   **   ~~~   ** ... Curve output at rated conditions = 1.224
   ** Warning ** GetDXCoils: Coil:Heating:DX:VariableRefrigerantFlow="ZN03_PV02_CO_RE_CAIXAS2 VRF HEATING COIL" curve values
   **   ~~~   ** ... heating_capacity_ratio_modifier_function_of_temperature_curve_name = ZN03_PV02_CO_RE_CAIXAS2 VRF HEATING COIL CAP-FT output is not equal to 1.0 (+ or - 10%) at rated conditions.
   **   ~~~   ** ... Curve output at rated conditions = 1.224
   ** Warning ** GetDXCoils: Coil:Heating:DX:VariableRefrigerantFlow="ZN04_PV02_CO_RE_ADMIN VRF HEATING COIL" curve values
   **   ~~~   ** ... heating_capacity_ratio_modifier_function_of_temperature_curve_name = ZN04_PV02_CO_RE_ADMIN VRF HEATING COIL CAP-FT output is not equal to 1.0 (+ or - 10%) at rated conditions.
   **   ~~~   ** ... Curve output at rated conditions = 1.224
   ** Warning ** GetDXCoils: Coil:Heating:DX:VariableRefrigerantFlow="ZN05_PV02_CO_NO_SERVIDOR VRF HEATING COIL" curve values
   **   ~~~   ** ... heating_capacity_ratio_modifier_function_of_temperature_curve_name = ZN05_PV02_CO_NO_SERVIDOR VRF HEATING COIL CAP-FT output is not equal to 1.0 (+ or - 10%) at rated conditions.
   **   ~~~   ** ... Curve output at rated conditions = 1.224
   ************* SizeDXCoil: Potential issue with equipment sizing for Coil:Cooling:DX:VariableRefrigerantFlow ZN01_PV01_CO_RE_ATM_EQUIP VRF COOLING COIL
   **   ~~~   ** User-Specified gross_rated_total_cooling_capacity [W] = 3518.00000
   **   ~~~   ** differs from Design Size gross_rated_total_cooling_capacity [W] = 2496.27038
   **   ~~~   ** This may, or may not, indicate mismatched component sizes.
   **   ~~~   ** Verify that the value entered is intended and is consistent with other components.
   ************* SizeDXCoil: Potential issue with equipment sizing for Coil:Cooling:DX:VariableRefrigerantFlow ZN02_PV01_CO_RE_CAIXAS1 VRF COOLING COIL
   **   ~~~   ** User-Specified gross_rated_total_cooling_capacity [W] = 9000.00000
   **   ~~~   ** differs from Design Size gross_rated_total_cooling_capacity [W] = 7684.51411
   **   ~~~   ** This may, or may not, indicate mismatched component sizes.
   **   ~~~   ** Verify that the value entered is intended and is consistent with other components.
   ************* SizeDXCoil: Potential issue with equipment sizing for Coil:Cooling:DX:VariableRefrigerantFlow ZN03_PV02_CO_RE_CAIXAS2 VRF COOLING COIL
   **   ~~~   ** User-Specified gross_rated_total_cooling_capacity [W] = 28400.00000
   **   ~~~   ** differs from Design Size gross_rated_total_cooling_capacity [W] = 22402.35463
   **   ~~~   ** This may, or may not, indicate mismatched component sizes.
   **   ~~~   ** Verify that the value entered is intended and is consistent with other components.
   ************* SizeDXCoil: Potential issue with equipment sizing for Coil:Cooling:DX:VariableRefrigerantFlow ZN04_PV02_CO_RE_ADMIN VRF COOLING COIL
   **   ~~~   ** User-Specified gross_rated_total_cooling_capacity [W] = 16800.00000
   **   ~~~   ** differs from Design Size gross_rated_total_cooling_capacity [W] = 12213.56630
   **   ~~~   ** This may, or may not, indicate mismatched component sizes.
   **   ~~~   ** Verify that the value entered is intended and is consistent with other components.
   ************* SizeVRF: Potential issue with equipment sizing for AirConditioner:VariableRefrigerantFlow ZN02_PV01_CO_RE_CAIXAS1 VRF TERMINAL UNIT
   **   ~~~   ** User-Specified Rated Total Heating Capacity of 81500.00 [W]
   **   ~~~   ** differs from Design Size Rated Total Heating Capacity of 70200.00 [W]
   **   ~~~   ** This may, or may not, indicate mismatched component sizes.
   **   ~~~   ** Verify that the value entered is intended and is consistent with other components.
   ************* SizeDXCoil: Potential issue with equipment sizing for Coil:Cooling:DX:VariableRefrigerantFlow ZN05_PV02_CO_NO_SERVIDOR VRF COOLING COIL
   **   ~~~   ** User-Specified gross_rated_total_cooling_capacity [W] = 8790.00000
   **   ~~~   ** differs from Design Size gross_rated_total_cooling_capacity [W] = 4692.32662
   **   ~~~   ** This may, or may not, indicate mismatched component sizes.
   **   ~~~   ** Verify that the value entered is intended and is consistent with other components.
   ************* Testing Individual Branch Integrity
   ************* All Branches passed integrity testing
   ************* Testing Individual Supply Air Path Integrity
   ************* All Supply Air Paths passed integrity testing
   ************* Testing Individual Return Air Path Integrity
   ************* All Return Air Paths passed integrity testing
   ************* No node connection errors were found.
   ************* Beginning Simulation
   ************* Simulation Error Summary *************
   ************* EnergyPlus Warmup Error Summary. During Warmup: 0 Warning; 0 Severe Errors.
   ************* EnergyPlus Sizing Error Summary. During Sizing: 13 Warning; 0 Severe Errors.
   ************* EnergyPlus Completed Successfully-- 13 Warning; 0 Severe Errors; Elapsed Time=00hr 01min 14.03sec


